
  ACD/Labs04281710322D

 22 22  0  0  0  0  0  0  0  0  1 V2000
    8.2321    0.0000    0.0000 O   0  0  0  0  0  0  0  0  0  0  0  0
    5.9342    0.0000    0.0000 O   0  0  0  0  0  0  0  0  0  0  0  0
    1.3257  -10.6437    0.0000 C   0  0  0  0  0  0  0  0  0  0  0  0
    1.3257  -11.9694    0.0000 C   0  0  0  0  0  0  0  0  0  0  0  0
    2.4747  -12.6260    0.0000 C   0  0  0  0  0  0  0  0  0  0  0  0
    2.4747   -9.9619    0.0000 C   0  0  0  0  0  0  0  0  0  0  0  0
    3.6236  -11.9694    0.0000 C   0  0  0  0  0  0  0  0  0  0  0  0
    3.6236  -10.6437    0.0000 C   0  0  0  0  0  0  0  0  0  0  0  0
    0.0000  -10.6437    0.0000 C   0  0  0  0  0  0  0  0  0  0  0  0
    0.6565   -9.4821    0.0000 C   0  0  0  0  0  0  0  0  0  0  0  0
    2.4747   -8.6362    0.0000 C   0  0  0  0  0  0  0  0  0  0  0  0
    4.7726   -9.9619    0.0000 C   0  0  0  0  0  0  0  0  0  0  0  0
    3.6236   -7.9796    0.0000 C   0  0  0  0  0  0  0  0  0  0  0  0
    3.6236   -6.6413    0.0000 C   0  0  0  0  0  0  0  0  0  0  0  0
    2.4747   -5.9721    0.0000 C   0  0  0  0  0  0  0  0  0  0  0  0
    4.7726   -5.9721    0.0000 C   0  0  0  0  0  0  0  0  0  0  0  0
    4.7726   -4.6464    0.0000 C   0  0  0  0  0  0  0  0  0  0  0  0
    5.9342   -3.9898    0.0000 C   0  0  0  0  0  0  0  0  0  0  0  0
    5.9342   -2.6514    0.0000 C   0  0  0  0  0  0  0  0  0  0  0  0
    4.7726   -1.9823    0.0000 C   0  0  0  0  0  0  0  0  0  0  0  0
    7.0832   -1.9823    0.0000 C   0  0  0  0  0  0  0  0  0  0  0  0
    7.0832   -0.6565    0.0000 C   0  0  0  0  0  0  0  0  0  0  0  0
  1 22  1  0  0  0  0
  2 22  2  0  0  0  0
  3  4  1  0  0  0  0
  3  6  1  0  0  0  0
  3  9  1  0  0  0  0
  3 10  1  0  0  0  0
  4  5  1  0  0  0  0
  5  7  1  0  0  0  0
  6  8  2  0  0  0  0
  6 11  1  0  0  0  0
  7  8  1  0  0  0  0
  8 12  1  0  0  0  0
 11 13  2  0  0  0  0
 13 14  1  0  0  0  0
 14 15  1  0  0  0  0
 14 16  2  0  0  0  0
 16 17  1  0  0  0  0
 17 18  2  0  0  0  0
 18 19  1  0  0  0  0
 19 20  1  0  0  0  0
 19 21  2  0  0  0  0
 21 22  1  0  0  0  0
M  END
